Version 4
SHEET 1 1776 996
WIRE 80 -16 -208 -16
WIRE 224 -16 224 -64
WIRE 224 -16 80 -16
WIRE 368 -16 224 -16
WIRE -208 32 -208 -16
WIRE 80 32 80 -16
WIRE 80 32 32 32
WIRE 368 32 368 -16
WIRE 416 32 368 32
WIRE 176 48 128 48
WIRE 320 48 176 48
WIRE 32 80 32 32
WIRE 80 80 32 80
WIRE 416 80 416 32
WIRE 416 80 368 80
WIRE 608 160 608 -64
WIRE 656 160 608 160
WIRE 80 176 80 128
WIRE 176 176 176 48
WIRE 176 176 80 176
WIRE 368 176 368 128
WIRE 560 176 368 176
WIRE 656 208 656 160
WIRE 656 208 608 208
WIRE 80 224 80 176
WIRE 368 224 368 176
WIRE 224 272 224 224
WIRE 224 272 80 272
WIRE 368 272 224 272
WIRE 32 304 -16 304
WIRE 464 304 416 304
WIRE 608 336 608 256
WIRE 800 336 608 336
WIRE -208 368 -208 112
WIRE -112 368 -208 368
WIRE 80 368 80 320
WIRE 224 368 80 368
WIRE 368 368 368 320
WIRE 368 368 224 368
WIRE -208 416 -208 368
WIRE 224 416 224 368
WIRE 608 416 608 336
WIRE -208 464 -256 464
WIRE 272 464 224 464
WIRE 656 464 608 464
WIRE -112 496 -112 368
WIRE -112 496 -160 496
WIRE 80 496 -112 496
WIRE 176 496 80 496
WIRE 560 496 496 496
WIRE -256 512 -256 464
WIRE -208 512 -256 512
WIRE 272 512 272 464
WIRE 272 512 224 512
WIRE 656 512 656 464
WIRE 656 512 608 512
WIRE 80 560 80 496
WIRE 496 560 496 496
WIRE 496 560 80 560
WIRE -208 608 -208 512
WIRE 224 608 224 512
WIRE 224 608 -208 608
WIRE 608 608 608 512
WIRE 608 608 224 608
WIRE 224 656 224 608
FLAG 224 224 vssa
FLAG 224 -64 vdda
FLAG 224 656 vssa
FLAG -16 304 inn
FLAG 464 304 inp
FLAG 800 336 out
FLAG 608 -64 vdd7
SYMBOL pmos4 128 128 R180
SYMATTR InstName M1
SYMATTR Value PMOS1
SYMBOL pmos4 320 128 M180
SYMATTR InstName M2
SYMATTR Value PMOS2
SYMBOL nmos4 32 224 R0
SYMATTR InstName M3
SYMATTR Value NMOS3
SYMBOL nmos4 416 224 M0
SYMATTR InstName M4
SYMATTR Value NMOS4
SYMBOL nmos4 -160 416 M0
SYMATTR InstName M5
SYMATTR Value NMOS5
SYMBOL nmos4 176 416 R0
SYMATTR InstName M6
SYMATTR Value NMOS6
SYMBOL current -208 32 R0
WINDOW 123 0 0 Left 0
WINDOW 39 0 0 Left 0
SYMATTR InstName Ibias
SYMATTR Value 45µ
SYMBOL pmos4 560 256 M180
SYMATTR InstName M7
SYMATTR Value PMOS7
SYMBOL nmos4 560 416 R0
SYMATTR InstName M8
SYMATTR Value NMOS8
TEXT 376 8 Left 2 ;S
TEXT 296 64 Left 2 ;G
TEXT 376 128 Left 2 ;D
TEXT 376 216 Left 2 ;D
TEXT 296 256 Left 2 ;G
TEXT 376 320 Left 2 ;S
